Info: SIMULATION PARAMETERS:
Info: TIMESTEP               1
Info: NUMBER OF STEPS        10000
Info: STEPS PER CYCLE        20
Info: FIRST LDB TIMESTEP     100
Info: LAST LDB TIMESTEP     -1
Info: HOM BACKGROUND SCALING 1
Info: MIN ATOMS PER PATCH    40
Info: INITIAL TEMPERATURE    300
Info: CENTER OF MASS MOVING INITIALLY? NO
Info: DIELECTRIC             1
Info: EXCLUDE                SCALED ONE-FOUR
Info: 1-4 ELECTROSTATICS SCALED BY 0.4
Info: MODIFIED 1-4 VDW PARAMETERS WILL BE USED
Info: NO DCD TRAJECTORY OUTPUT
Info: NO EXTENDED SYSTEM TRAJECTORY OUTPUT
Info: NO VELOCITY DCD OUTPUT
Info: NO FORCE DCD OUTPUT
Info: OUTPUT FILENAME        output
Info: BINARY OUTPUT FILES WILL BE USED
Info: NO RESTART FILE
Info: SWITCHING ACTIVE
Info: SWITCHING ON           7
Info: SWITCHING OFF          8
Info: PAIRLIST DISTANCE      9
Info: PAIRLIST SHRINK RATE   0.01
Info: PAIRLIST GROW RATE     0.01
Info: PAIRLIST TRIGGER       0.3
Info: PAIRLISTS PER CYCLE    2
Info: PAIRLISTS ENABLED
Info: MARGIN                 1
Info: HYDROGEN GROUP CUTOFF  2.5
Info: PATCH DIMENSION        12.5
Info: CROSSTERM ENERGY INCLUDED IN DIHEDRAL
Info: TIMING OUTPUT STEPS    100
Info: INTERACTIVE MD ACTIVE
Info: INTERACTIVE MD PORT    2030
Info: INTERACTIVE MD FREQ    1
Info: WILL AWAIT INTERACTIVE MD CONNECTION
Info: LANGEVIN DYNAMICS ACTIVE
Info: LANGEVIN TEMPERATURE   300
Info: LANGEVIN USING BBK INTEGRATOR
Info: LANGEVIN DAMPING COEFFICIENT IS 5 INVERSE PS
Info: LANGEVIN DYNAMICS NOT APPLIED TO HYDROGENS
Info: USING VERLET I (r-RESPA) MTS SCHEME.
Info: C1 SPLITTING OF LONG RANGE ELECTROSTATICS
Info: PLACING ATOMS IN PATCHES BY HYDROGEN GROUPS
Info: RANDOM NUMBER SEED     1666507968
Info: USE HYDROGEN BONDS?    NO
Info: COORDINATE PDB         alanin.pdb
Info: STRUCTURE FILE         alanin.psf
Info: PARAMETER file: XPLOR format! (default)
Info: PARAMETERS             alanin.params
Info: USING ARITHMETIC MEAN TO COMBINE L-J SIGMA PARAMETERS
Info: SUMMARY OF PARAMETERS:
Info: 61 BONDS
Info: 179 ANGLES
Info: 38 DIHEDRAL
Info: 42 IMPROPER
Info: 0 CROSSTERM
Info: 21 VDW
Info: 0 VDW_PAIRS
Info: 0 NBTHOLE_PAIRS
Info: STRUCTURE SUMMARY:
Info: 66 ATOMS
Info: 65 BONDS
Info: 96 ANGLES
Info: 31 DIHEDRALS
Info: 32 IMPROPERS
Info: 0 CROSSTERMS
Info: 0 EXCLUSIONS
Info: 198 DEGREES OF FREEDOM
Info: 55 HYDROGEN GROUPS
Info: 2 ATOMS IN LARGEST HYDROGEN GROUP
Info: 55 MIGRATION GROUPS
Info: 2 ATOMS IN LARGEST MIGRATION GROUP
Info: TOTAL MASS = 783.886 amu
Info: TOTAL CHARGE = 8.19564e-08 e
Info: ADDED 285 IMPLICIT EXCLUSIONS
Info: NONBONDED TABLE R-SQUARED SPACING: 0.0625
Info: NONBONDED TABLE SIZE: 705 POINTS
Info: ORIGINAL ATOMS MINMAX IS -2.184 -0.67 -1.88  10.58 10.992 11.014
Info: ADJUSTED ATOMS MINMAX IS -1.15287 0.0535 -1.021  10.3759 10.0685 9.189
Info: REMOVING COM VELOCITY 0.516554 -0.267484 -0.89966
Info: Interactive MD listening on port 2030.
Info: INTERACTIVE MD AWAITING CONNECTION
Info: IMD connection opened
ETITLE: TS BOND ANGLE DIHED IMPRP ELECT VDW BOUNDARY MISC KINETIC TOTAL TEMP POTENTIAL TOTAL3 TEMPAVG
ENERGY: 0 0.0050 0.4192 0.0368 0.4591 -210.1610 1.0506 0.0000 0.0000 58.4177 -149.7726 296.9409 -208.1904 -149.7618 296.9409
ENERGY: 2000 19.3316 17.6403 2.6977 5.8643 -197.8152 -22.2316 0.0000 0.0000 64.6341 -109.8787 328.5390 -174.5129 -109.1634 328.5390
ENERGY: 4000 20.0009 19.6619 2.6974 8.3769 -199.5594 -22.8557 0.0000 0.0000 54.3300 -117.3479 276.1626 -171.6779 -116.9424 276.1626
ENERGY: 6000 24.4653 18.7569 7.6148 11.5638 -199.9650 -24.9539 0.0000 0.0000 75.3637 -87.1544 383.0781 -162.5181 -87.7200 383.0781
ENERGY: 8000 20.0647 27.4258 2.2904 5.3759 -202.8522 -28.2518 0.0000 0.0000 68.5371 -107.4100 348.3783 -175.9471 -107.2866 348.3783
ENERGY: 10000 23.7301 21.4731 1.1938 9.2515 -200.4481 -23.9392 0.0000 0.0000 63.0032 -105.7356 320.2493 -168.7388 -105.8063 320.2493
